pcf
* control data
             restart          estimation
        30         2         1         0         2
         1         1              single               point         1
   2.000000E+01  -3.000000E+00   3.000000E-01   1.000000E-02        -7
   1.000000E+01   1.000000E+01   1.000000E-03
   1.000000E-01
        15   1.000000E-02         3         3   1.000000E-02         3
         0         0         0
* singular value decomposition
         1
  10000000    1.000000E-06
1
* parameter groups
decvars                relative              1.0000000000E-02      0.0 switch                2.0000000000E+00      parabolic             1.0000000000E-05      5.0000000000E-01      smaller              
* parameter data
dv_0                  none                  relative              5.0000000000E-01      0.0000000000E+00      1.0000000000E+00      decvars               1.0000000000E+00      0.0000000000E+00      1          
dv_1                  none                  relative              5.0000000000E-01      0.0000000000E+00      1.0000000000E+00      decvars               1.0000000000E+00      0.0000000000E+00      1          
dv_10                 none                  relative              5.0000000000E-01      0.0000000000E+00      1.0000000000E+00      decvars               1.0000000000E+00      0.0000000000E+00      1          
dv_11                 none                  relative              5.0000000000E-01      0.0000000000E+00      1.0000000000E+00      decvars               1.0000000000E+00      0.0000000000E+00      1          
dv_12                 none                  relative              5.0000000000E-01      0.0000000000E+00      1.0000000000E+00      decvars               1.0000000000E+00      0.0000000000E+00      1          
dv_13                 none                  relative              5.0000000000E-01      0.0000000000E+00      1.0000000000E+00      decvars               1.0000000000E+00      0.0000000000E+00      1          
dv_14                 none                  relative              5.0000000000E-01      0.0000000000E+00      1.0000000000E+00      decvars               1.0000000000E+00      0.0000000000E+00      1          
dv_15                 none                  relative              5.0000000000E-01      0.0000000000E+00      1.0000000000E+00      decvars               1.0000000000E+00      0.0000000000E+00      1          
dv_16                 none                  relative              5.0000000000E-01      0.0000000000E+00      1.0000000000E+00      decvars               1.0000000000E+00      0.0000000000E+00      1          
dv_17                 none                  relative              5.0000000000E-01      0.0000000000E+00      1.0000000000E+00      decvars               1.0000000000E+00      0.0000000000E+00      1          
dv_18                 none                  relative              5.0000000000E-01      0.0000000000E+00      1.0000000000E+00      decvars               1.0000000000E+00      0.0000000000E+00      1          
dv_19                 none                  relative              5.0000000000E-01      0.0000000000E+00      1.0000000000E+00      decvars               1.0000000000E+00      0.0000000000E+00      1          
dv_2                  none                  relative              5.0000000000E-01      0.0000000000E+00      1.0000000000E+00      decvars               1.0000000000E+00      0.0000000000E+00      1          
dv_20                 none                  relative              5.0000000000E-01      0.0000000000E+00      1.0000000000E+00      decvars               1.0000000000E+00      0.0000000000E+00      1          
dv_21                 none                  relative              5.0000000000E-01      0.0000000000E+00      1.0000000000E+00      decvars               1.0000000000E+00      0.0000000000E+00      1          
dv_22                 none                  relative              5.0000000000E-01      0.0000000000E+00      1.0000000000E+00      decvars               1.0000000000E+00      0.0000000000E+00      1          
dv_23                 none                  relative              5.0000000000E-01      0.0000000000E+00      1.0000000000E+00      decvars               1.0000000000E+00      0.0000000000E+00      1          
dv_24                 none                  relative              5.0000000000E-01      0.0000000000E+00      1.0000000000E+00      decvars               1.0000000000E+00      0.0000000000E+00      1          
dv_25                 none                  relative              5.0000000000E-01      0.0000000000E+00      1.0000000000E+00      decvars               1.0000000000E+00      0.0000000000E+00      1          
dv_26                 none                  relative              5.0000000000E-01      0.0000000000E+00      1.0000000000E+00      decvars               1.0000000000E+00      0.0000000000E+00      1          
dv_27                 none                  relative              5.0000000000E-01      0.0000000000E+00      1.0000000000E+00      decvars               1.0000000000E+00      0.0000000000E+00      1          
dv_28                 none                  relative              5.0000000000E-01      0.0000000000E+00      1.0000000000E+00      decvars               1.0000000000E+00      0.0000000000E+00      1          
dv_29                 none                  relative              5.0000000000E-01      0.0000000000E+00      1.0000000000E+00      decvars               1.0000000000E+00      0.0000000000E+00      1          
dv_3                  none                  relative              5.0000000000E-01      0.0000000000E+00      1.0000000000E+00      decvars               1.0000000000E+00      0.0000000000E+00      1          
dv_4                  none                  relative              5.0000000000E-01      0.0000000000E+00      1.0000000000E+00      decvars               1.0000000000E+00      0.0000000000E+00      1          
dv_5                  none                  relative              5.0000000000E-01      0.0000000000E+00      1.0000000000E+00      decvars               1.0000000000E+00      0.0000000000E+00      1          
dv_6                  none                  relative              5.0000000000E-01      0.0000000000E+00      1.0000000000E+00      decvars               1.0000000000E+00      0.0000000000E+00      1          
dv_7                  none                  relative              5.0000000000E-01      0.0000000000E+00      1.0000000000E+00      decvars               1.0000000000E+00      0.0000000000E+00      1          
dv_8                  none                  relative              5.0000000000E-01      0.0000000000E+00      1.0000000000E+00      decvars               1.0000000000E+00      0.0000000000E+00      1          
dv_9                  none                  relative              5.0000000000E-01      0.0000000000E+00      1.0000000000E+00      decvars               1.0000000000E+00      0.0000000000E+00      1          
* observation groups
obj_1                
obj_2                
* observation data
obj_1                 0.0000000000E+00      1.0000000000E+00      obj_1                
obj_2                 0.0000000000E+00      1.0000000000E+00      obj_2                
* model command line
python forward_run.py
* model input/output
./dv.dat.tpl ./dv.dat
./obj.dat.ins ./obj.dat
++ies_par_en(par.csv)
++ies_obs_en(obs.csv)
++ies_phi_factor_file(phi_facs.csv)
++ies_phi_factors_by_real(True)
++ies_weights_en(weights.csv)
++ies_multimodal_alpha(0.2)
++ies_lambda_mults(1.0)
++lambda_scale_fac(1.0)
++panther_agent_freeze_on_fail(True)
